  55
        -67.92288314
 P          0.1649005343       -0.0151038749       -0.6136153903
 C         -1.6045668245       -0.1530903661       -0.1565882385
 N          0.9964503234       -1.2744752787        0.1725388138
 N          0.7496768704        1.3617342449        0.1535479656
 O          0.3460435184        0.0407541165       -2.0703533106
 C          2.4415925669       -1.1251131854       -0.0044595822
 C          0.4965135789       -2.6486935704        0.1590262090
 C          0.7761428475        1.4356318967        1.6041117720
 C          0.8817620911        2.6078367626       -0.5989865386
 C          3.1918398881       -1.6291142977        1.2296246118
 H          2.6035906241       -0.0453515379       -0.0930784674
 C          2.9891581772       -1.7608861874       -1.2835467875
 C         -0.3249966070       -2.9929995765       -1.0814510772
 C         -0.2868991026       -2.9795640306        1.4326290299
 H          1.3804595759       -3.2943039397        0.1579647248
 H          0.6215436160        0.4060564127        1.9418860589
 C         -0.3281092803        2.3254371630        2.1852425848
 C          2.1402172394        1.9000715868        2.1254848280
 C          2.0731985946        2.5480581665       -1.5533618361
 H          1.0792750761        3.3969119202        0.1348101631
 C         -0.3986466482        2.9756166771       -1.3465162782
 H          4.2405965930       -1.3491543280        1.1631551941
 H          3.1352507654       -2.7120919583        1.3111986800
 H          2.7703768111       -1.1947784120        2.1326511309
 H          4.0337587711       -1.4843552091       -1.4078342288
 H          2.4276760457       -1.3936012672       -2.1376273327
 H          2.9248535091       -2.8463872375       -1.2583563868
 H         -1.2712507836       -2.4578966010       -1.0760640859
 H         -0.5304439687       -4.0619151448       -1.1046586873
 H          0.2187550760       -2.7185077732       -1.9810182657
 H          0.2316864604       -2.5905190895        2.3055436542
 H         -0.3736118798       -4.0592331485        1.5357233322
 H         -1.2881208641       -2.5613356518        1.3963907910
 H         -0.3802931189        2.1899695366        3.2631818981
 H         -1.2941458561        2.0728758408        1.7557008251
 H         -0.1284227825        3.3757968564        1.9863569691
 H          2.9377600877        1.2846515184        1.7199910656
 H          2.1599374260        1.8235552774        3.2101649470
 H          2.3337642105        2.9355048934        1.8557994216
 H          2.9872278191        2.3325194932       -1.0040314453
 H          2.1895110498        3.5022939277       -2.0622734933
 H          1.9149731169        1.7698593131       -2.2918190586
 H         -1.2495921482        2.9741282696       -0.6677367568
 H         -0.5817473426        2.2582623243       -2.1391731213
 H         -0.3027137915        3.9668970357       -1.7847183009
 C         -2.0969972194       -0.2596193697        1.1375875941
 C         -2.4979342326       -0.0240482492       -1.2121681960
 C         -3.8624523383       -0.0182058186       -0.9876239165
 C         -3.4629267968       -0.2541612270        1.3634035073
 C         -4.3477284469       -0.1338566641        0.3044090894
 H         -1.4205905189       -0.3529482223        1.9722237952
 H         -2.0999884834        0.0573415354       -2.2129844491
 H         -4.5469510295        0.0772030028       -1.8178439106
 H         -3.8382032323       -0.3424497645        2.3731306617
 H         -5.4122932882       -0.1295213306        0.4874984713
