%chk=LR21_57_ox
%nproc=32
%mem=100gb
# opt freq m062x/def2tzvp pop=(full,nbo)

Title Card Required

 0 1
P          0.3235649473       -0.0971485952       -0.6699920854
N          1.2246433286       -1.2212943748        0.2269851871
N          1.0420402962        1.3452175137       -0.1949543266
C         -1.3652555779       -0.1739831013        0.0228037715
O          0.3526211677       -0.2346514128       -2.1304742140
C          0.5854499881       -2.4772216967        0.5742822542
C          2.5879793001       -1.3224407903       -0.2729161770
C          1.2698392659        1.6301890550        1.2064457483
C          0.8238711458        2.4685859052       -1.0837521427
H         -0.2723206855       -2.2537972469        1.2147757846
H          1.2982219417       -3.0637011450        1.1619568531
C          0.1039586986       -3.2898855537       -0.6254038661
H          2.6966253711       -2.1569022192       -0.9758266688
C          3.5962131144       -1.4727594215        0.8620018347
H          2.7905265551       -0.3985782942       -0.8234754563
H          1.2932016930        0.6650590274        1.7159873526
H          0.4579807096        2.2322365551        1.6351928411
C          2.6021219644        2.3425827594        1.4321222447
H          1.6728392096        3.1541168011       -1.0058292717
C         -0.4802797138        3.2205745080       -0.8289784111
H          0.8081564483        2.0585779003       -2.0958356830
H         -0.5996726649       -2.6971103904       -1.2062372200
H         -0.3884742936       -4.1999380569       -0.2901098598
H          0.9356711474       -3.5611310592       -1.2710498832
H          3.4882654813       -0.6596231522        1.5745720793
H          4.6062774572       -1.4560395432        0.4603157608
H          3.4541159985       -2.4132110620        1.3892453673
H          3.4003546860        1.8133106092        0.9180090865
H          2.8264564703        2.3715521906        2.4958096930
H          2.5710205269        3.3650023420        1.0645956949
H         -1.3205673852        2.5306948342       -0.8907850341
H         -0.6100290636        3.9976451611       -1.5779352037
H         -0.4838202756        3.6879430267        0.1535164161
C         -1.6554494579       -0.0785745882        1.3778305718
C         -2.4014297312       -0.2317315592       -0.8988236749
C         -3.7180095368       -0.2115767716       -0.4750658849
C         -4.0039256773       -0.1241291919        0.8773033831
C         -2.9725648997       -0.0570783494        1.8006069079
H         -0.8554375413       -0.0292553775        2.1010843309
H         -2.1515201515       -0.2954818825       -1.9481752411
H         -4.5200212760       -0.2621757296       -1.1969436122
H         -5.0302442515       -0.1066019750        1.2137532400
H         -3.1967180849        0.0134761024        2.8553846689

