  49
        -60.30730986
 P          0.0076105304        0.5352950645        0.4470373971
 O         -0.0666740694        1.8778649719       -0.4745893256
 N          1.3049087211       -0.3368386324       -0.1379652564
 N         -1.3166362345       -0.3344673135       -0.1134231443
 O          0.0652741714        0.8440048711        1.8818771490
 C          0.2961136831        3.1156634475        0.0987956789
 C          1.3325102050       -0.5724574272       -1.5714712316
 C          2.5278716364       -0.4920187452        0.6388396099
 C         -1.3773079749       -1.6513247955        0.5084503907
 C         -2.5729643781        0.2920887860       -0.5047124134
 H          1.3012782460        3.4002167098       -0.2223398781
 H          0.2723584485        3.0515142762        1.1891045774
 C          2.2733759177        0.3748675620       -2.3172784913
 H          0.3101466669       -0.3669711151       -1.9041678050
 C          1.6642045177       -2.0309154726       -1.8944962172
 C          2.2826081667       -1.3955330497        1.8454004389
 C          3.1113940130        0.8498015080        1.0821527393
 H          3.2558471478       -0.9842976733       -0.0155704694
 H         -0.3349447738       -1.8906968626        0.7486204340
 C         -1.8973616391       -2.7043153187       -0.4720532587
 C         -2.1677702850       -1.6723922169        1.8166294073
 C         -3.0044823990        1.4309016405        0.4197951453
 H         -3.3374937058       -0.4898921941       -0.4474526051
 C         -2.4974919883        0.7591024553       -1.9587880295
 H          1.9992584303        1.4065144549       -2.1134329715
 H          2.1961721027        0.2017632800       -3.3881827664
 H          3.3075428820        0.2181990109       -2.0182923567
 H          2.7111118000       -2.2518339962       -1.6994256662
 H          1.4679131420       -2.2280579361       -2.9455931040
 H          1.0532173203       -2.6983492151       -1.2931883983
 H          3.2037487111       -1.5259121538        2.4086683811
 H          1.9317297765       -2.3733069830        1.5219612146
 H          1.5342089975       -0.9463781333        2.4901228528
 H          4.0669384254        0.6968723262        1.5796733289
 H          2.4287126632        1.3332564151        1.7734651162
 H          3.2658360974        1.5005030698        0.2242773498
 H         -1.7094141320       -3.6991637514       -0.0755052510
 H         -1.3940304254       -2.6069710373       -1.4301977531
 H         -2.9680130213       -2.6027627301       -0.6327078448
 H         -3.2214457161       -1.4636743909        1.6453094621
 H         -1.7630012825       -0.9244874645        2.4929360000
 H         -2.0821996720       -2.6505842114        2.2842832193
 H         -2.3630384034        2.2957140828        0.2881441377
 H         -2.9455074211        1.1156479635        1.4580629120
 H         -4.0298011386        1.7220738726        0.1974866125
 H         -1.7234830672        1.5112920315       -2.0720252499
 H         -3.4516488396        1.1832545463       -2.2636572011
 H         -2.2659578565       -0.0812310959       -2.6092446832
 H         -0.4155521148        3.8707741407       -0.2419095104
