  29
        -37.48533022
 P          0.0003473974        0.0110340364       -0.4359065312
 N          0.0601118866        1.5406418564        0.3080651547
 N         -1.4247247046       -0.6125347082        0.2076786754
 N          1.3731407837       -0.7211515953        0.2069582103
 O         -0.0016069204       -0.0292198775       -1.8989694842
 C          1.2870472613        2.2607262950        0.0243487167
 C         -1.1078450859        2.3536328529        0.0264653820
 C         -1.6986512514       -0.6145755406        1.6230960806
 C         -2.1207375461       -1.6278473914       -0.5452970834
 C          1.9862669238       -1.7889949277       -0.5454150116
 C          1.6479516874       -0.7429319624        1.6220424185
 H          1.3813995204        3.0915716797        0.7278307667
 H          1.3025429280        2.6613286744       -0.9964220089
 H          2.1349940736        1.5902835226        0.1430389829
 H         -2.0049564321        1.7507753402        0.1462444013
 H         -1.0938318202        2.7547176640       -0.9941378052
 H         -1.1365540372        3.1889666468        0.7303791694
 H         -1.4236240582       -1.5645737944        2.0974442850
 H         -2.7694021730       -0.4541658468        1.7845733291
 H         -1.1479673654        0.1951237711        2.0941729245
 H         -3.1997773754       -1.4559397252       -0.4902033426
 H         -1.9127206824       -2.6377317288       -0.1709339822
 H         -1.8029292349       -1.5597280920       -1.5832031460
 H          1.6734174886       -1.6975270202       -1.5830378768
 H          1.7000941829       -2.7789262977       -0.1693336400
 H          3.0755438146       -1.7022877415       -0.4918930031
 H          1.1626060127        0.1077018353        2.0928281355
 H          2.7281580158       -0.6661839044        1.7819864154
 H          1.3004470479       -1.6681132284        2.0978727596
