  47
        -56.48742113
 P         -0.1065516821        0.0632285491       -0.5724066894
 N          1.3664021679       -0.7202440732       -0.3687697410
 N          0.1767342008        1.5139258190        0.2691209229
 N         -1.3232982151       -0.7022324778        0.2940623266
 O         -0.4452502938        0.1737931187       -1.9944895067
 C          1.6839710258       -1.7190043504       -1.3679707777
 C          2.0604087067       -0.7863967908        0.8981759610
 C         -0.9923676489        2.2798891716        0.6585378777
 C          1.2639160443        2.2890731949       -0.3091491304
 C         -2.4891677513       -1.1901732949       -0.4112750504
 C         -1.2600925494       -0.9089399866        1.7225933955
 H          2.7692864866       -1.7656322106       -1.4968823239
 H          1.2437187606       -1.3688272639       -2.3033741957
 C          1.1363143765       -3.1092859028       -1.0536505116
 H          1.6236740448       -0.0157371337        1.5345382963
 C          3.5607590476       -0.5226171594        0.7651490079
 H          1.9163197862       -1.7594985576        1.3861269448
 H         -0.6864224955        3.0078908956        1.4183004241
 H         -1.6925804155        1.5851623366        1.1245284280
 C         -1.7062320824        2.9923899695       -0.4912829314
 H          1.9130913896        1.5826739581       -0.8322625606
 C          2.0623974008        3.0343351007        0.7566439723
 H          0.8935888018        3.0009061074       -1.0552785694
 H         -2.6641626553       -2.2426721736       -0.1598907199
 H         -2.2569586495       -1.1256322582       -1.4753191658
 C         -3.7551219695       -0.3830180740       -0.1300818737
 H         -2.1836675999       -0.5472652718        2.1927667106
 H         -0.4338474572       -0.3070240496        2.1033374747
 C         -1.0510429910       -2.3704853992        2.1208435505
 H          1.3649107792       -3.7892739134       -1.8705877926
 H          0.0561239496       -3.0570176777       -0.9345411643
 H          1.5764192886       -3.5105402298       -0.1425091477
 H          3.9987154012       -0.4185108401        1.7551487215
 H          3.7379544274        0.3923947180        0.2065344380
 H          4.0637575043       -1.3419949832        0.2582328474
 H         -1.1350280633        3.8456379937       -0.8486616693
 H         -2.6777338599        3.3508662021       -0.1580111331
 H         -1.8432200026        2.2962758730       -1.3153667648
 H          2.9276208927        3.5094289086        0.3008108222
 H          2.4054020205        2.3472733794        1.5257784342
 H          1.4590972680        3.8063806545        1.2277329278
 H         -3.5977770230        0.6599620249       -0.3910728443
 H         -4.0411891762       -0.4440827877        0.9179005584
 H         -4.5740272963       -0.7722885880       -0.7296560530
 H         -0.1794309574       -2.7800811113        1.6188666159
 H         -1.9156195390       -2.9742898972        1.8565409838
 H         -0.9029335110       -2.4391891003        3.1958690376
