  29
        -37.48533022
 P          0.0003473974        0.0110340364       -0.4359065312
 N          0.0601118866        1.5406418564        0.3080651547
 N         -1.4247247046       -0.6125347082        0.2076786754
 N          1.3731407837       -0.7211515953        0.2069582103
 O         -0.0016069204       -0.0292198775       -1.8989694842
 C          1.2870472613        2.2607262950        0.0243487167
 C         -1.1078450859        2.3536328529        0.0264653820
 C         -1.6986512514       -0.6145755406        1.6230960806
 C         -2.1207375461       -1.6278473914       -0.5452970834
 C          1.9862669238       -1.7889949277       -0.5454150116
 C          1.6479516874       -0.7429319624        1.6220424185
 H          1.3813995204        3.0915716797        0.7278307667
 H          1.3025429280        2.6613286744       -0.9964220089
 H          2.1349940736        1.5902835226        0.1430389829
 H         -2.0049564321        1.7507753402        0.1462444013
 H         -1.0938318202        2.7547176640       -0.9941378052
 H         -1.1365540372        3.1889666468        0.7303791694
 H         -1.4236240582       -1.5645737944        2.0974442850
 H         -2.7694021730       -0.4541658468        1.7845733291
 H         -1.1479673654        0.1951237711        2.0941729245
 H         -3.1997773754       -1.4559397252       -0.4902033426
 H         -1.9127206824       -2.6377317288       -0.1709339822
 H         -1.8029292349       -1.5597280920       -1.5832031460
 H          1.6734174886       -1.6975270202       -1.5830378768
 H          1.7000941829       -2.7789262977       -0.1693336400
 H          3.0755438146       -1.7022877415       -0.4918930031
 H          1.1626060127        0.1077018353        2.0928281355
 H          2.7281580158       -0.6661839044        1.7819864154
 H          1.3004470479       -1.6681132284        2.0978727596
  29
        -37.48172171
 P          0.0163774687       -0.0589724254       -0.4832048593
 N          0.2293829154        1.5516518788       -0.0544346055
 N         -1.4595663192       -0.5586509492        0.1451613929
 N          1.2187007362       -0.9483287606        0.2827671097
 O          0.0652223644       -0.2349021936       -1.9316969494
 C         -0.4219445569        2.5437805688       -0.8760409632
 C          0.7073118848        2.0410888122        1.2124809055
 C         -2.0525264521       -0.1209310746        1.3820311378
 C         -2.0409011498       -1.7575383616       -0.4100317938
 C          2.5169774968       -0.9799652061       -0.3473488154
 C          1.2019850971       -1.4082585024        1.6470110336
 H         -1.3201707502        2.9484933191       -0.3946415373
 H         -0.7016385023        2.0725982549       -1.8150539563
 H          0.2652599829        3.3696949652       -1.0804341253
 H         -0.0896364650        2.5202657634        1.7969680333
 H          1.4909808772        2.7887662431        1.0462640951
 H          1.1267314895        1.2241665361        1.7921323045
 H         -1.5212576780        0.7464133110        1.7624157526
 H         -2.0409349301       -0.9093234083        2.1466491103
 H         -3.0981900600        0.1583675154        1.2105792051
 H         -1.9204857547       -2.6183009261        0.2584837321
 H         -1.5443582492       -1.9666214252       -1.3543258574
 H         -3.1085083436       -1.6056697070       -0.5926490783
 H          2.9117630249       -1.9998964293       -0.3395291614
 H          3.2345573494       -0.3244003754        0.1602686092
 H          2.3997252439       -0.6514564878       -1.3770696169
 H          1.9158811752       -0.8597713320        2.2762197926
 H          1.4771173091       -2.4683983425        1.6813648741
 H          0.2058669658       -1.2962763566        2.0646828342
  29
        -37.48144022
 P          0.0937200599       -0.0286666392       -0.4823483220
 N          0.1530976975        1.5323916221        0.1550384420
 N         -1.3691745552       -0.7532573900       -0.1014119950
 N          1.2643928643       -0.8862604085        0.3609575884
 O          0.3402101016       -0.0082483292       -1.9212678576
 C         -0.4310726399        2.5904918065       -0.6337700687
 C          0.3278821443        1.8557784401        1.5469545839
 C         -2.0822612601       -1.4960970756       -1.1114683583
 C         -2.0792761486       -0.5806672630        1.1403794576
 C          1.0701490192       -1.7519057900        1.4922124230
 C          2.6252406118       -0.4664881203        0.1291602845
 H         -1.4307420959        2.8671477035       -0.2769657855
 H         -0.5013822625        2.2456206057       -1.6626637848
 H          0.2076718460        3.4774654465       -0.5972397018
 H          1.0312712566        2.6903254965        1.6412869245
 H          0.7378086904        0.9994557569        2.0766611085
 H         -0.6141041862        2.1560914347        2.0247821586
 H         -3.0625200936       -1.0489478542       -1.3074725951
 H         -2.2308947545       -2.5354309158       -0.7992716401
 H         -1.4936876041       -1.4781989320       -2.0248826155
 H         -1.4517774896       -0.0634146421        1.8600123481
 H         -2.3652810446       -1.5534192102        1.5579582477
 H         -2.9974968932        0.0008430944        0.9906484613
 H          0.0352970069       -2.0788950841        1.5277143047
 H          1.3280641289       -1.2674590091        2.4448296563
 H          1.7069695117       -2.6358315482        1.3846496243
 H          2.6384599788        0.1497222108       -0.7677636220
 H          3.2660940443       -1.3387032314       -0.0293727592
 H          3.0289258687        0.1134599439        0.9684022003
