%chk=PB_R_C_3_460_ox
%nproc=32
%mem=100gb
# opt freq m062x/def2tzvp pop=(full,nbo)

Title Card Required

 0 1
P          0.7899985733       -0.0003388588        0.0004974867
N          0.3869017606        0.9881931275        1.3275786890
N          0.3885313356        0.6555748978       -1.5191574205
N          0.3865936366       -1.6438451441        0.1924812373
O          2.2616761575       -0.0009327273        0.0013929310
C         -0.8971498279       -2.2825801763        0.1050418466
C         -1.8904366816       -1.3026586141       -0.5004864734
C         -0.8947085863        1.0501939209       -2.0302366113
C         -1.8893045015        1.0847879792       -0.8799672004
C         -0.8969124948        1.2330747006        1.9237593207
C         -1.8908662719        0.2196287759        1.3773713255
N         -1.5255895379        0.0004644846       -0.0008369180
C          1.3928731590       -2.5328317826        0.7242558543
C          1.3959347324        0.6389787860       -2.5538206894
C          1.3935560592        1.8928972457        1.8313037679
H         -1.2316403953       -2.6223143672        1.1003678991
H         -0.8189455033       -3.1794428797       -0.5253656224
H         -2.9271230617       -1.5719941408       -0.2537680112
H         -1.7783391487       -1.3060680687       -1.5843404773
H         -1.2281461996        0.3577524773       -2.8222944293
H         -0.8161619933        2.0444463727       -2.4920053865
H         -2.9255956608        1.0058960005       -1.2377775647
H         -1.7777246796        2.0251227175       -0.3408714826
H         -1.2303099415        2.2652514163        1.7200781860
H         -0.8194234807        1.1355271961        3.0157295394
H         -2.9272874807        0.5688848417        1.4868111804
H         -1.7798169525       -0.7174351983        1.9222609459
H          2.3364822933       -2.0006776995        0.7758050116
H          1.5089423901       -3.4053508103        0.0731559132
H          1.1206186017       -2.8832876693        1.7270075642
H          2.3391228036        0.3286844218       -2.1175070636
H          1.5122832831        1.6388716670       -2.9843558573
H          1.1246877182       -0.0547502471       -3.3585846537
H          1.1219437341        2.9365795909        1.6328517839
H          2.3371673058        1.6706214997        1.3450342562
H          1.5092788106        1.7657531954        2.9125724352

