%chk=PB_R_C_2_472_ox
%nproc=32
%mem=100gb
# opt freq m062x/def2tzvp pop=(full,nbo)

Title Card Required

 0 1
P          0.0642315178       -0.2749133860       -0.4240174494
N         -1.0425757103       -1.4598695271        0.0198389876
N          1.2570584090       -0.5138151199        0.7633995803
N         -0.5632857998        1.2374962197       -0.0481820828
O          0.4356313927       -0.3843265342       -1.8378002307
C         -1.7260053667       -1.3468255775        1.2933419493
C         -2.0791668393       -1.7472929787       -0.9502591066
C          1.7258754903       -1.8761343116        0.9389742857
C          2.4593214545        0.2562700464        0.4873370381
C         -0.4387264848        1.9113057511        1.2264212125
C         -0.6506781867        2.2614915522       -1.0651977765
H         -1.1388412966       -0.7422681940        1.9820258182
H         -1.8339092577       -2.3534320110        1.7147699951
C         -3.1140537827       -0.7480198612        0.9865597442
H         -1.7098905785       -1.5515654247       -1.9554723407
C         -3.2515129863       -0.8509432823       -0.5411692174
H         -2.3532486491       -2.8054180758       -0.8649185145
H          0.9012049884       -2.5783037130        0.8303022662
H          2.1435796498       -1.9597956204        1.9498215323
C          2.8194357172       -2.0712724975       -0.1177389839
H          2.2034535799        1.1711950108       -0.0480035477
C          3.3848672126       -0.6591874721       -0.3337082697
H          2.9266579859        0.5227068618        1.4434255872
H          0.1133634648        1.2891200464        1.9297633247
H         -1.4396644966        2.1036669246        1.6347875534
C          0.2731744337        3.2506353505        0.9350834524
H         -1.6765303135        2.6515661360       -1.1018241765
H         -0.3935231068        1.8409192088       -2.0362608169
C          0.3121709814        3.3570197844       -0.5977584853
H         -3.1733964112        0.2880501458        1.3149240671
H         -3.8951518696       -1.3104212387        1.4968390654
H         -3.1294875142        0.1298689864       -1.0015529870
H         -4.2108477377       -1.2639454571       -0.8476942977
H          2.3669263019       -2.4388335880       -1.0375678985
H          3.5781421592       -2.7803486904        0.2095672956
H          3.3418865028       -0.3886066156       -1.3869498266
H          4.4167662885       -0.5742867984        0.0053057996
H          1.2773648616        3.2602128549        1.3564361171
H         -0.2830634691        4.0785528341        1.3728980602
H          0.0114813454        4.3407318271       -0.9530247419
H          1.3147655102        3.1504044862       -0.9734776835

