  36
        -48.38414968
 P          0.7899985733       -0.0003388588        0.0004974867
 N          0.3869017606        0.9881931275        1.3275786890
 N          0.3885313356        0.6555748978       -1.5191574205
 N          0.3865936366       -1.6438451441        0.1924812373
 O          2.2616761575       -0.0009327273        0.0013929310
 C         -0.8971498279       -2.2825801763        0.1050418466
 C         -1.8904366816       -1.3026586141       -0.5004864734
 C         -0.8947085863        1.0501939209       -2.0302366113
 C         -1.8893045015        1.0847879792       -0.8799672004
 C         -0.8969124948        1.2330747006        1.9237593207
 C         -1.8908662719        0.2196287759        1.3773713255
 N         -1.5255895379        0.0004644846       -0.0008369180
 C          1.3928731590       -2.5328317826        0.7242558543
 C          1.3959347324        0.6389787860       -2.5538206894
 C          1.3935560592        1.8928972457        1.8313037679
 H         -1.2316403953       -2.6223143672        1.1003678991
 H         -0.8189455033       -3.1794428797       -0.5253656224
 H         -2.9271230617       -1.5719941408       -0.2537680112
 H         -1.7783391487       -1.3060680687       -1.5843404773
 H         -1.2281461996        0.3577524773       -2.8222944293
 H         -0.8161619933        2.0444463727       -2.4920053865
 H         -2.9255956608        1.0058960005       -1.2377775647
 H         -1.7777246796        2.0251227175       -0.3408714826
 H         -1.2303099415        2.2652514163        1.7200781860
 H         -0.8194234807        1.1355271961        3.0157295394
 H         -2.9272874807        0.5688848417        1.4868111804
 H         -1.7798169525       -0.7174351983        1.9222609459
 H          2.3364822933       -2.0006776995        0.7758050116
 H          1.5089423901       -3.4053508103        0.0731559132
 H          1.1206186017       -2.8832876693        1.7270075642
 H          2.3391228036        0.3286844218       -2.1175070636
 H          1.5122832831        1.6388716670       -2.9843558573
 H          1.1246877182       -0.0547502471       -3.3585846537
 H          1.1219437341        2.9365795909        1.6328517839
 H          2.3371673058        1.6706214997        1.3450342562
 H          1.5092788106        1.7657531954        2.9125724352
  36
        -48.38078109
 P          0.8007331976        0.0062525835        0.0319170787
 N          0.4042050145        1.0247938750        1.3199029140
 N          0.3759262519        0.6000890542       -1.5074935514
 N          0.2836227494       -1.5926218545        0.3943633107
 O          2.2732891459       -0.0233641660        0.0182284870
 C         -0.7209815057       -2.2149979732       -0.4342916630
 C         -1.9641542239       -1.3117842350       -0.4458533245
 C         -0.9194217073        0.9757421665       -2.0066269385
 C         -1.8809495923        1.0838748170       -0.8333284328
 C         -0.8687508970        1.2385450570        1.9497003811
 C         -1.8494787267        0.1981595201        1.4357672945
 N         -1.5503978779       -0.0121787769        0.0412189855
 C          1.3238571826       -2.5055060615        0.8109129668
 C          1.3738839493        0.5667082621       -2.5509184041
 C          1.4046474036        1.9625493927        1.7724253838
 H         -0.9633044790       -3.1935250718       -0.0067851061
 H         -0.3566235769       -2.3863420564       -1.4599362803
 H         -2.7497223755       -1.7279947586        0.1945260842
 H         -2.3706953148       -1.2331586139       -1.4548303198
 H         -1.2786908698        0.2383200898       -2.7439311180
 H         -0.8445508958        1.9405566812       -2.5270480195
 H         -2.9290123278        1.0676132989       -1.1662538753
 H         -1.6964091359        2.0213929359       -0.3101131967
 H         -1.2324619108        2.2617566080        1.7528909289
 H         -0.7600303127        1.1456249161        3.0390799230
 H         -2.8907033878        0.5106391298        1.6048938813
 H         -1.6653661629       -0.7420780297        1.9568939612
 H          0.8981212394       -3.2432932317        1.4971266562
 H          2.0934477784       -1.9386464288        1.3254475149
 H          1.7858485255       -3.0328437760       -0.0318312190
 H          2.3227586884        0.2691187580       -2.1163307063
 H          1.4839954049        1.5579531799       -3.0025684297
 H          1.0981105210       -0.1430844592       -3.3404737228
 H          2.3405781571        1.7425819540        1.2691380010
 H          1.5496830855        1.8696489625        2.8535659581
 H          1.1095521804        2.9953633937        1.5514439592
