  44
        -57.31893932
 P          0.0212737230        0.4517076120       -0.3960988414
 O         -0.1428280878       -1.0402116036       -0.8650961723
 O          1.2473686751        0.4231858996        0.5898708244
 O         -1.1510178146        0.6892558154        0.6249167422
 O          0.0993973407        1.3943754683       -1.5019945680
 Si        -0.0810760280       -2.4319335702        0.0341892544
 Si         2.7563694400        0.9785103941        0.1784405908
 Si        -2.6996963727        1.0737184494        0.1766995143
 C          1.7396891059       -2.9756283488        0.1796152275
 C         -1.0747480210       -3.6468910905       -1.0419785793
 C         -0.8438593965       -2.1872164829        1.7586565100
 C          3.2983744815        0.1573142619       -1.4498123852
 C          3.8033347581        0.4352903269        1.6712154566
 C          2.6743596419        2.8708304638        0.0075886629
 C         -3.6304557288        0.9594269709        1.8320213952
 C         -3.3169067157       -0.2027758607       -1.0939086314
 C         -2.7058134304        2.8303434561       -0.5503575675
 H          1.8242469733       -3.9338959764        0.6825662869
 H          2.3187230671       -2.2483959654        0.7411923483
 H          2.1982725142       -3.0785052524       -0.8002511662
 H         -0.6811733558       -3.6913531058       -2.0526445388
 H         -2.1227240813       -3.3732470346       -1.1134246939
 H         -1.0220802973       -4.6452630633       -0.6224023709
 H         -0.3950231038       -1.3221629481        2.2382628938
 H         -0.6922678153       -3.0493346238        2.4017626096
 H         -1.9129816525       -2.0015176749        1.6980898593
 H          3.5158514329       -0.9004279094       -1.3268789556
 H          4.1783150957        0.6260880402       -1.8795431209
 H          2.4837602143        0.2472665645       -2.1632768060
 H          3.3800200219        0.7887842860        2.6054902230
 H          4.8009733841        0.8486234009        1.5824763264
 H          3.9020367418       -0.6430218316        1.7426848385
 H          1.9380392392        3.1256972447       -0.7494308206
 H          3.6265385525        3.3036639128       -0.2827628268
 H          2.3654416553        3.3409964198        0.9380149348
 H         -3.1969847394        1.6162299515        2.5790479710
 H         -3.6277494835       -0.0462251799        2.2399202620
 H         -4.6636092484        1.2550315752        1.6918186664
 H         -4.2683473404        0.0757712310       -1.5366472835
 H         -3.4354546057       -1.1883390625       -0.6502458963
 H         -2.5835773794       -0.2899147094       -1.8910984136
 H         -1.9523344641        2.8930324636       -1.3306031427
 H         -2.4579832110        3.5730767119        0.2037621364
 H         -3.6661013101        3.1010439288       -0.9778312866
